Circuit: * C:\Users\mukul\Desktop\BITS Labs\VLSI\Project\AND_model.asc

Ignoring BSIM parameter XL
Ignoring BSIM parameter XW
Ignoring BSIM parameter XL
Ignoring BSIM parameter XW
Ignoring BSIM parameter XL
Ignoring BSIM parameter XW
Ignoring BSIM parameter XL
Ignoring BSIM parameter XW
Warning: Pd = 0 is less than W.
Warning: Ps = 0 is less than W.
Warning: Pd = 0 is less than W.
Warning: Ps = 0 is less than W.
Warning: Pd = 0 is less than W.
Warning: Ps = 0 is less than W.
Warning: Pd = 0 is less than W.
Warning: Ps = 0 is less than W.
Direct Newton iteration for .op point succeeded.

Date: Tue Nov 30 23:29:05 2021
Total elapsed time: 0.381 seconds.

tnom = 27
temp = 27
method = modified trap
totiter = 23334
traniter = 23320
tranpoints = 10425
accept = 10315
rejected = 110
matrix size = 11
fillins = 0
solver = Normal
Matrix Compiler1: 360 bytes object code size  0.1/0.1/[0.0]
Matrix Compiler2: off  [0.1]/0.1/0.1

