Circuit: * C:\Users\mukul\Desktop\BITS Labs\VLSI\Project\D_Flip_Flop_design_Pr_Clr.asc

Ignoring BSIM parameter XL
Ignoring BSIM parameter XW
Ignoring BSIM parameter XL
Ignoring BSIM parameter XW
WARNING: Node N002 is floating.
WARNING: Node N005 is floating.

WARNING: Less than two connections to node N002.  This node is used by M9.
WARNING: Less than two connections to node N005.  This node is used by M10.
Warning: Pd = 0 is less than W.
Warning: Ps = 0 is less than W.
Warning: Pd = 0 is less than W.
Warning: Ps = 0 is less than W.
Direct Newton iteration for .op point succeeded.

Date: Wed Dec 01 21:52:29 2021
Total elapsed time: 0.230 seconds.

tnom = 27
temp = 27
method = modified trap
totiter = 1966
traniter = 1930
tranpoints = 703
accept = 647
rejected = 56
matrix size = 20
fillins = 4
solver = Normal
Matrix Compiler1: 1.15 KB object code size  0.4/0.4/[0.1]
Matrix Compiler2: 1.99 KB object code size  0.3/0.5/[0.3]

