Circuit: * C:\Users\mukul\Desktop\BITS Labs\VLSI\Project\D_Flip_Flop_exper1.asc

Ignoring BSIM parameter XL
Ignoring BSIM parameter XW
Ignoring BSIM parameter XL
Ignoring BSIM parameter XW
Ignoring BSIM parameter XL
Ignoring BSIM parameter XW
Ignoring BSIM parameter XL
Ignoring BSIM parameter XW
Ignoring BSIM parameter XL
Ignoring BSIM parameter XW
Ignoring BSIM parameter XL
Ignoring BSIM parameter XW
WARNING: Node N002 is floating.
WARNING: Node N009 is floating.

WARNING: Less than two connections to node N002.  This node is used by M9.
WARNING: Less than two connections to node N009.  This node is used by M10.
Warning: Pd = 0 is less than W.
Warning: Ps = 0 is less than W.
Warning: Pd = 0 is less than W.
Warning: Ps = 0 is less than W.
Warning: Pd = 0 is less than W.
Warning: Ps = 0 is less than W.
Warning: Pd = 0 is less than W.
Warning: Ps = 0 is less than W.
Warning: Pd = 0 is less than W.
Warning: Ps = 0 is less than W.
Warning: Pd = 0 is less than W.
Warning: Ps = 0 is less than W.
Direct Newton iteration for .op point succeeded.

Date: Thu Dec 02 21:46:11 2021
Total elapsed time: 0.798 seconds.

tnom = 27
temp = 27
method = modified trap
totiter = 21666
traniter = 21637
tranpoints = 10347
accept = 10264
rejected = 83
matrix size = 26
fillins = 4
solver = Normal
Matrix Compiler1: 1.35 KB object code size  0.3/0.2/[0.1]
Matrix Compiler2: off  [0.2]/0.3/0.3

