Circuit: * C:\Users\mukul\Desktop\BITS Labs\VLSI\Project\D_Flip_Flop_design.asc

Ignoring BSIM parameter XL
Ignoring BSIM parameter XW
Ignoring BSIM parameter XL
Ignoring BSIM parameter XW
WARNING: Node N002 is floating.
WARNING: Node N005 is floating.

WARNING: Less than two connections to node N002.  This node is used by M9.
WARNING: Less than two connections to node N005.  This node is used by M10.
Warning: Pd = 0 is less than W.
Warning: Ps = 0 is less than W.
Warning: Pd = 0 is less than W.
Warning: Ps = 0 is less than W.
Direct Newton iteration for .op point succeeded.

Date: Wed Dec 01 20:55:12 2021
Total elapsed time: 0.440 seconds.

tnom = 27
temp = 27
method = modified trap
totiter = 22588
traniter = 22548
tranpoints = 10351
accept = 10267
rejected = 84
matrix size = 20
fillins = 4
solver = Normal
Matrix Compiler1: 1.11 KB object code size  0.2/0.1/[0.1]
Matrix Compiler2: 2.00 KB object code size  0.2/0.2/[0.1]

