Circuit: * C:\Users\mukul\Desktop\BITS Labs\VLSI\Project\D_Flip_Flop_M_S.asc

Ignoring BSIM parameter XL
Ignoring BSIM parameter XW
Ignoring BSIM parameter XL
Ignoring BSIM parameter XW
Ignoring BSIM parameter XL
Ignoring BSIM parameter XW
Ignoring BSIM parameter XL
Ignoring BSIM parameter XW
Limiting rise time of source v§d to 2e-010
Limiting fall time of source v§d to 2e-010
WARNING: Node N002 is floating.

Warning: Pd = 0 is less than W.
Warning: Ps = 0 is less than W.
Warning: Pd = 0 is less than W.
Warning: Ps = 0 is less than W.
Warning: Pd = 0 is less than W.
Warning: Ps = 0 is less than W.
Warning: Pd = 0 is less than W.
Warning: Ps = 0 is less than W.
Direct Newton iteration for .op point succeeded.

Date: Wed Dec 01 21:57:48 2021
Total elapsed time: 0.222 seconds.

tnom = 27
temp = 27
method = modified trap
totiter = 3987
traniter = 3960
tranpoints = 1342
accept = 1037
rejected = 305
matrix size = 16
fillins = 2
solver = Normal
Matrix Compiler1: 1.33 KB object code size  0.3/0.2/[0.1]
Matrix Compiler2: 1.71 KB object code size  0.2/0.3/[0.2]

