Circuit: * C:\Users\mukul\Desktop\BITS Labs\VLSI\Project\New folder\counter_90nm_prclr_440n_220n_3-12\New folder\Counter1_P_Clr2_440_220_final3.asc

Limiting rise time of source v§clock2 to 2.5e-011
Limiting fall time of source v§clock2 to 2.5e-011
Limiting rise time of source v§clock1 to 2.5e-011
Limiting fall time of source v§clock1 to 2.5e-011
WARNING: Node X1:N001 is floating.
WARNING: Node X1:N004 is floating.
WARNING: Node X1:N006 is floating.
WARNING: Node X1:N010 is floating.
WARNING: Node X1:N007 is floating.
WARNING: Node X1:N011 is floating.
WARNING: Node X2:N001 is floating.
WARNING: Node X2:N004 is floating.
WARNING: Node X2:N006 is floating.
WARNING: Node X2:N010 is floating.
WARNING: Node X2:N007 is floating.
WARNING: Node X2:N011 is floating.
WARNING: Node X3:N001 is floating.
WARNING: Node X3:N004 is floating.
WARNING: Node X3:N006 is floating.
WARNING: Node X3:N010 is floating.
WARNING: Node X3:N007 is floating.
WARNING: Node X3:N011 is floating.
WARNING: Node X4:N001 is floating.
WARNING: Node X4:N004 is floating.
WARNING: Node X4:N006 is floating.
WARNING: Node X4:N010 is floating.
WARNING: Node X4:N007 is floating.
WARNING: Node X4:N011 is floating.

WARNING: Less than two connections to node X1:N001.  This node is used by M:X1:9.
WARNING: Less than two connections to node X1:N004.  This node is used by M:X1:10.
WARNING: Less than two connections to node X1:N006.  This node is used by M:X1:11.
WARNING: Less than two connections to node X1:N010.  This node is used by M:X1:12.
WARNING: Less than two connections to node X1:N007.  This node is used by M:X1:13.
WARNING: Less than two connections to node X1:N011.  This node is used by M:X1:14.
WARNING: Less than two connections to node X2:N001.  This node is used by M:X2:9.
WARNING: Less than two connections to node X2:N004.  This node is used by M:X2:10.
WARNING: Less than two connections to node X2:N006.  This node is used by M:X2:11.
WARNING: Less than two connections to node X2:N010.  This node is used by M:X2:12.
WARNING: Less than two connections to node X2:N007.  This node is used by M:X2:13.
WARNING: Less than two connections to node X2:N011.  This node is used by M:X2:14.
WARNING: Less than two connections to node X3:N001.  This node is used by M:X3:9.
WARNING: Less than two connections to node X3:N004.  This node is used by M:X3:10.
WARNING: Less than two connections to node X3:N006.  This node is used by M:X3:11.
WARNING: Less than two connections to node X3:N010.  This node is used by M:X3:12.
WARNING: Less than two connections to node X3:N007.  This node is used by M:X3:13.
WARNING: Less than two connections to node X3:N011.  This node is used by M:X3:14.
WARNING: Less than two connections to node X4:N001.  This node is used by M:X4:9.
WARNING: Less than two connections to node X4:N004.  This node is used by M:X4:10.
WARNING: Less than two connections to node X4:N006.  This node is used by M:X4:11.
WARNING: Less than two connections to node X4:N010.  This node is used by M:X4:12.
WARNING: Less than two connections to node X4:N007.  This node is used by M:X4:13.
WARNING: Less than two connections to node X4:N011.  This node is used by M:X4:14.
Direct Newton iteration failed to find .op point.  (Use ".option noopiter" to skip.)
Starting Gmin stepping
Gmin = 10
Gmin = 1.07374
Gmin = 0.115292
Gmin = 0.0123794
Gmin = 0.00132923
Gmin = 0.000142725
Gmin = 1.5325e-005
Gmin = 1.6455e-006
Gmin = 1.76685e-007
Gmin = 1.89714e-008
Gmin = 2.03704e-009
Gmin = 2.18725e-010
Gmin = 2.34854e-011
Gmin = 2.52173e-012
Gmin = 2.70769e-013
Gmin = 0
Gmin stepping succeeded in finding the operating point.

.step v=1.44
.step v=1.62
.step v=1.8
.step v=1.98

Date: Fri Dec 03 21:18:45 2021
Total elapsed time: 303.091 seconds.

tnom = 27
temp = 27
method = modified trap
totiter = 51303
traniter = 8282
tranpoints = 2384
accept = 2118
rejected = 958
matrix size = 620
fillins = 6412
solver = Normal
Thread vector: 689.8/202.5[8] 69.0/34.7[8] 36.6/22.1[8] 6.0/22.4[1]  2592/500
Matrix Compiler1: 2.59 MB object code size  1738.9/858.6/[412.6]
Matrix Compiler2: 183.98 KB object code size  37.1/36.3/[11.4]

