Circuit: * C:\Users\vsaik\Desktop\vlsi project\newone_2-12\Counter1_P_Clr2_exper5.asc

Limiting rise time of source v§clock2 to 2.5e-011
Limiting fall time of source v§clock2 to 2.5e-011
Limiting rise time of source v§clock1 to 2.5e-011
Limiting fall time of source v§clock1 to 2.5e-011
WARNING: Node X1:N002 is floating.
WARNING: Node X1:N005 is floating.
WARNING: Node X1:N007 is floating.
WARNING: Node X1:N011 is floating.
WARNING: Node X1:N008 is floating.
WARNING: Node X1:N012 is floating.
WARNING: Node X2:N002 is floating.
WARNING: Node X2:N005 is floating.
WARNING: Node X2:N007 is floating.
WARNING: Node X2:N011 is floating.
WARNING: Node X2:N008 is floating.
WARNING: Node X2:N012 is floating.
WARNING: Node X3:N002 is floating.
WARNING: Node X3:N005 is floating.
WARNING: Node X3:N007 is floating.
WARNING: Node X3:N011 is floating.
WARNING: Node X3:N008 is floating.
WARNING: Node X3:N012 is floating.
WARNING: Node X4:N002 is floating.
WARNING: Node X4:N005 is floating.
WARNING: Node X4:N007 is floating.
WARNING: Node X4:N011 is floating.
WARNING: Node X4:N008 is floating.
WARNING: Node X4:N012 is floating.

WARNING: Less than two connections to node X1:N002.  This node is used by M:X1:9.
WARNING: Less than two connections to node X1:N005.  This node is used by M:X1:10.
WARNING: Less than two connections to node X1:N007.  This node is used by M:X1:11.
WARNING: Less than two connections to node X1:N011.  This node is used by M:X1:12.
WARNING: Less than two connections to node X1:N008.  This node is used by M:X1:13.
WARNING: Less than two connections to node X1:N012.  This node is used by M:X1:14.
WARNING: Less than two connections to node X2:N002.  This node is used by M:X2:9.
WARNING: Less than two connections to node X2:N005.  This node is used by M:X2:10.
WARNING: Less than two connections to node X2:N007.  This node is used by M:X2:11.
WARNING: Less than two connections to node X2:N011.  This node is used by M:X2:12.
WARNING: Less than two connections to node X2:N008.  This node is used by M:X2:13.
WARNING: Less than two connections to node X2:N012.  This node is used by M:X2:14.
WARNING: Less than two connections to node X3:N002.  This node is used by M:X3:9.
WARNING: Less than two connections to node X3:N005.  This node is used by M:X3:10.
WARNING: Less than two connections to node X3:N007.  This node is used by M:X3:11.
WARNING: Less than two connections to node X3:N011.  This node is used by M:X3:12.
WARNING: Less than two connections to node X3:N008.  This node is used by M:X3:13.
WARNING: Less than two connections to node X3:N012.  This node is used by M:X3:14.
WARNING: Less than two connections to node X4:N002.  This node is used by M:X4:9.
WARNING: Less than two connections to node X4:N005.  This node is used by M:X4:10.
WARNING: Less than two connections to node X4:N007.  This node is used by M:X4:11.
WARNING: Less than two connections to node X4:N011.  This node is used by M:X4:12.
WARNING: Less than two connections to node X4:N008.  This node is used by M:X4:13.
WARNING: Less than two connections to node X4:N012.  This node is used by M:X4:14.
Direct Newton iteration failed to find .op point.  (Use ".option noopiter" to skip.)
Starting Gmin stepping
Gmin = 10
Gmin = 1.07374
Gmin = 0.115292
Gmin = 0.0123794
Gmin = 0.00132923
Gmin = 0.000142725
Gmin = 1.5325e-005
Gmin = 1.6455e-006
Gmin = 1.76685e-007
Gmin = 1.89714e-008
Gmin = 2.03704e-009
Gmin = 2.18725e-010
vernier = 0.5
vernier = 0.25
vernier = 0.125
vernier = 0.0625
vernier = 0.03125
vernier = 0.015625
vernier = 0.0078125
vernier = 0.00390625
vernier = 0.00195313
vernier = 0.000976563
Gmin = 2.73406e-010
vernier = 0.000488281
Gmin = 0
Gmin stepping failed

Starting source stepping with srcstepmethod=0
Source Step = 3.0303%
Source Step = 28.0303%
vernier = 0.0625
Source stepping aborted.
Starting source stepping with srcstepmethod=1
Source Step = 3.0303%
Source Step = 33.3333%
Source Step = 36.3755%
Source stepping aborted.
Pseudo Transient failed in finding the operating point at 5.75556 µs.
Trouble finding operating point....skipping operating point for Transient analysis.
.step temp=10°C
.step temp=25°C
