Circuit: * C:\Users\vsaik\Desktop\vlsi project\newone_2-12\Counter1_P_Clr2_exper3.asc

Limiting rise time of source v§clock2 to 2.5e-011
Limiting fall time of source v§clock2 to 2.5e-011
Limiting rise time of source v§clock1 to 2.5e-011
Limiting fall time of source v§clock1 to 2.5e-011
WARNING: Node X1:N002 is floating.
WARNING: Node X1:N005 is floating.
WARNING: Node X1:N007 is floating.
WARNING: Node X1:N011 is floating.
WARNING: Node X1:N008 is floating.
WARNING: Node X1:N012 is floating.
WARNING: Node X2:N002 is floating.
WARNING: Node X2:N005 is floating.
WARNING: Node X2:N007 is floating.
WARNING: Node X2:N011 is floating.
WARNING: Node X2:N008 is floating.
WARNING: Node X2:N012 is floating.
WARNING: Node X3:N002 is floating.
WARNING: Node X3:N005 is floating.
WARNING: Node X3:N007 is floating.
WARNING: Node X3:N011 is floating.
WARNING: Node X3:N008 is floating.
WARNING: Node X3:N012 is floating.
WARNING: Node X4:N002 is floating.
WARNING: Node X4:N005 is floating.
WARNING: Node X4:N007 is floating.
WARNING: Node X4:N011 is floating.
WARNING: Node X4:N008 is floating.
WARNING: Node X4:N012 is floating.

WARNING: Less than two connections to node X1:N002.  This node is used by M:X1:9.
WARNING: Less than two connections to node X1:N005.  This node is used by M:X1:10.
WARNING: Less than two connections to node X1:N007.  This node is used by M:X1:11.
WARNING: Less than two connections to node X1:N011.  This node is used by M:X1:12.
WARNING: Less than two connections to node X1:N008.  This node is used by M:X1:13.
WARNING: Less than two connections to node X1:N012.  This node is used by M:X1:14.
WARNING: Less than two connections to node X2:N002.  This node is used by M:X2:9.
WARNING: Less than two connections to node X2:N005.  This node is used by M:X2:10.
WARNING: Less than two connections to node X2:N007.  This node is used by M:X2:11.
WARNING: Less than two connections to node X2:N011.  This node is used by M:X2:12.
WARNING: Less than two connections to node X2:N008.  This node is used by M:X2:13.
WARNING: Less than two connections to node X2:N012.  This node is used by M:X2:14.
WARNING: Less than two connections to node X3:N002.  This node is used by M:X3:9.
WARNING: Less than two connections to node X3:N005.  This node is used by M:X3:10.
WARNING: Less than two connections to node X3:N007.  This node is used by M:X3:11.
WARNING: Less than two connections to node X3:N011.  This node is used by M:X3:12.
WARNING: Less than two connections to node X3:N008.  This node is used by M:X3:13.
WARNING: Less than two connections to node X3:N012.  This node is used by M:X3:14.
WARNING: Less than two connections to node X4:N002.  This node is used by M:X4:9.
WARNING: Less than two connections to node X4:N005.  This node is used by M:X4:10.
WARNING: Less than two connections to node X4:N007.  This node is used by M:X4:11.
WARNING: Less than two connections to node X4:N011.  This node is used by M:X4:12.
WARNING: Less than two connections to node X4:N008.  This node is used by M:X4:13.
WARNING: Less than two connections to node X4:N012.  This node is used by M:X4:14.
Direct Newton iteration failed to find .op point.  (Use ".option noopiter" to skip.)
Starting Gmin stepping
Gmin = 10
Gmin = 1.07374
Gmin = 0.115292
Gmin = 0.0123794
Gmin = 0.00132923
Gmin = 0.000142725
Gmin = 1.5325e-005
Gmin = 1.6455e-006
Gmin = 1.76685e-007
Gmin = 1.89714e-008
Gmin = 2.03704e-009
vernier = 0.5
vernier = 0.25
vernier = 0.125
vernier = 0.0625
vernier = 0.03125
vernier = 0.015625
Gmin = 1.04296e-009
vernier = 0.0078125
vernier = 0.00390625
vernier = 0.00195313
vernier = 0.000976563
vernier = 0.000488281
Gmin = 0
Gmin stepping aborted per request.

Starting source stepping with srcstepmethod=0
Source Step = 3.0303%
Source stepping aborted.
Starting source stepping with srcstepmethod=1
Source Step = 3.0303%
Source Step = 33.3333%
Source Step = 39.4028%
Source Step = 39.4324%
Source Step = 39.462%
Source Step = 39.4916%
Source Step = 39.5212%
vernier = 0.00146484
Source Step = 39.5523%
Source Step = 39.5967%
Source Step = 39.641%
Source Step = 39.6854%
Source Step = 39.7298%
Source Step = 39.7742%
vernier = 0.00219727
Source Step = 39.8408%
Source Step = 39.9074%
Source Step = 39.974%
Source Step = 40.0405%
Source Step = 40.1071%
vernier = 0.0032959
Source Step = 40.2037%
Source Step = 40.3035%
Source Step = 40.4034%
Source Step = 40.5033%
Source Step = 40.6032%
vernier = 0.00494385
Source Step = 40.743%
Source Step = 40.8928%
Source Step = 41.0426%
Source Step = 41.1924%
Source Step = 41.3423%
vernier = 0.00741577
Source Step = 41.5445%
Source Step = 41.7692%
Source Step = 41.9939%
Source Step = 42.2187%
Source Step = 42.4434%
vernier = 0.0111237
Source Step = 42.7355%
Source Step = 43.0726%
Source Step = 43.4097%
Source Step = 43.7468%
Source Step = 44.0838%
vernier = 0.0166855
Source Step = 44.5052%
Source Step = 45.0108%
Source Step = 45.5164%
Source Step = 46.0221%
Source Step = 46.5277%
vernier = 0.0250282
Source Step = 47.1344%
Source Step = 47.8929%
Source Step = 48.6513%
Source Step = 49.4097%
Source Step = 50.1681%
vernier = 0.0375423
Source Step = 51.0403%
Source Step = 52.178%
Source Step = 53.3156%
Source Step = 54.4533%
Source Step = 55.5909%
vernier = 0.0563135
Source Step = 56.8423%
Source Step = 58.5488%
Source Step = 60.2553%
Source Step = 61.9618%
Source Step = 63.6682%
vernier = 0.0844703
Source Step = 65.46%
Source Step = 68.0197%
Source Step = 70.5794%
Source Step = 73.1391%
Source Step = 75.6988%
Source Step = 78.2585%
vernier = 0.126705
Source Step = 82.0981%
Source Step = 85.9377%
Source Step = 89.7772%
Source stepping aborted.
Pseudo Transient failed in finding the operating point at 5.36642 µs.
Trouble finding operating point....skipping operating point for Transient analysis.

Date: Fri Dec 03 01:23:14 2021
Total elapsed time: 24.861 seconds.

tnom = 27
temp = 27
method = modified trap
totiter = 21750
traniter = 11106
tranpoints = 3529
accept = 3163
rejected = 464
matrix size = 666
fillins = 2557
solver = Normal
Thread vector: 555.4/206.5[4] 59.2/39.8[4] 45.5/18.4[4] 12.3/20.0[1]  2592/500
Matrix Compiler1: 430.57 KB object code size  256.9/123.5/[72.2]
Matrix Compiler2: 125.54 KB object code size  40.5/61.0/[28.0]

